FoamFile
{
    version     2.0;
    format      ascii;
    class       dictionary;
    object      controlDict;
}

application     simpleFoam;

startFrom       startTime;
startTime       0;
stopAt          endTime;
endTime         400;

deltaT          1;

writeControl    timeStep;
writeInterval   100;

purgeWrite      0;

writeFormat     binary;
writePrecision  6;
writeCompression off;


timeFormat      general;
timePrecision   6;

runTimeModifiable true;

functions
{
    fieldAverage1
    {
        type            fieldAverage;
        libs            (fieldFunctionObjects);
        writeControl    writeTime;
        fields
        (
            U
            {
                mean        on;
                prime2Mean  on;
                base        time;
            }
            p
            {
                mean        on;
                prime2Mean  on;
                base        time;
            }
        );
    }
    
    residuals
    {
        type            solverInfo;
        libs            (utilityFunctionObjects);
        fields          (U p k epsilon);
        writeControl    timeStep;
        writeInterval   1;
    }

    #include "ensightWrite"
    #include "vtkWrite"

    // Demonstrate runTimePostProcessing
    #include "visualization"
    #include "profiling"
}
