
FoamFile
{
    version 2.0;
    format ascii;
    class dictionary;
    object setFieldsDict;
}

defaultFieldValues
(
    volScalarFieldValue alpha 0
);

regions
(
    surfaceToCell
    {
        type surfaceToCell;
        set constant/triSurface/southken.stl;
        action inside;
    }
);

